data/projects/mackelroy/240_node_test_system_EXP_VOLTAGES.csv
Bus, BasekV, Node1, Magnitude1, Angle1, pu1, Node2, Magnitude2, Angle2, pu2, Node3, Magnitude3, Angle3, pu3
"EQ_SOURCE_BUS", 115, 1,    38378.5,    7.6,   0.57803, 2,    38378.5, -112.4,   0.57803, 3,    38378.5,  127.6,   0.57803
"BUS1001", 12.47, 1,    7192.78,   -0.7,   0.99906, 2,    7192.78, -120.7,   0.99906, 3,    7192.78,  119.3,   0.99906
"BUS1002", 12.47, 1,    7192.78,   -0.7,   0.99906, 2,    7192.78, -120.7,   0.99906, 3,    7192.78,  119.3,   0.99906
"BUS1003", 12.47, 1,    7192.78,   -0.7,   0.99906, 2,    7192.78, -120.7,   0.99906, 3,    7192.78,  119.3,   0.99906
"BUS1004", 12.47, 1,    7192.78,   -0.7,   0.99906, 2,    7192.79, -120.7,   0.99906, 3,    7192.79,  119.3,   0.99906
"BUS1005", 12.47, 1,    7192.78,   -0.7,   0.99906, 2,    7192.79, -120.7,   0.99906, 3,    7192.79,  119.3,   0.99906
"BUS1006", 12.47, 1,    7192.79,   -0.7,   0.99906, 2,    7192.79, -120.7,   0.99906, 3,    7192.79,  119.3,   0.99906
"BUS1007", 12.47, 1,    7192.79,   -0.7,   0.99906, 2,    7192.79, -120.7,   0.99906, 0, 0, 0, 0
"BUS1008", 12.47, 1,    7192.79,   -0.7,   0.99906, 2,    7192.79, -120.7,   0.99906, 3,    7192.79,  119.3,   0.99906
"BUS1009", 12.47, 1,    7192.79,   -0.7,   0.99906, 2,    7192.79, -120.7,   0.99906, 3,    7192.79,  119.3,   0.99906
"BUS1010", 12.47, 1,    7192.79,   -0.7,   0.99906, 2,    7192.79, -120.7,   0.99906, 3,    7192.79,  119.3,   0.99906
"BUS1011", 12.47, 1,    7192.79,   -0.7,   0.99906, 2,    7192.79, -120.7,   0.99906, 3,    7192.79,  119.3,   0.99906
"BUS1012", 12.47, 1,    7192.79,   -0.7,   0.99906, 2,    7192.79, -120.7,   0.99906, 3,    7192.79,  119.3,   0.99906
"BUS1013", 12.47, 1,    7192.79,   -0.7,   0.99906, 2,    7192.79, -120.7,   0.99906, 3,    7192.79,  119.3,   0.99906
"BUS1014", 12.47, 2,    7192.79, -120.7,   0.99906, 0, 0, 0, 0, 0, 0, 0, 0
"BUS1015", 12.47, 2,    7192.79, -120.7,   0.99906, 0, 0, 0, 0, 0, 0, 0, 0
"BUS1016", 12.47, 3,    7192.79,  119.3,   0.99906, 0, 0, 0, 0, 0, 0, 0, 0
"BUS1017", 12.47, 3,    7192.79,  119.3,   0.99906, 0, 0, 0, 0, 0, 0, 0, 0
"BUS2001", 12.47, 1,    7192.78,   -0.7,   0.99906, 2,    7192.78, -120.7,   0.99906, 3,    7192.78,  119.3,   0.99906
"BUS2002", 12.47, 1,    7192.79,   -0.7,   0.99906, 2,    7192.79, -120.7,   0.99906, 3,    7192.79,  119.3,   0.99906
"BUS2003", 12.47, 1,    7192.79,   -0.7,   0.99906, 2,    7192.79, -120.7,   0.99906, 3,    7192.79,  119.3,   0.99906
"BUS2004", 12.47, 1,    7192.79,   -0.7,   0.99906, 2,     7192.8, -120.7,   0.99906, 3,    7192.79,  119.3,   0.99906
"BUS2005", 12.47, 1,     7192.8,   -0.7,   0.99906, 2,     7192.8, -120.7,   0.99906, 3,     7192.8,  119.3,   0.99906
"BUS2006", 12.47, 1,     7192.8,   -0.7,   0.99906, 2,     7192.8, -120.7,   0.99906, 3,     7192.8,  119.3,   0.99906
"BUS2007", 12.47, 1,     7192.8,   -0.7,   0.99906, 0, 0, 0, 0, 0, 0, 0, 0
"BUS2008", 12.47, 1,     7192.8,   -0.7,   0.99906, 0, 0, 0, 0, 0, 0, 0, 0
"BUS2009", 12.47, 1,     7192.8,   -0.7,   0.99906, 0, 0, 0, 0, 0, 0, 0, 0
"BUS2010", 12.47, 1,     7192.8,   -0.7,   0.99906, 2,     7192.8, -120.7,   0.99906, 3,     7192.8,  119.3,   0.99906
"BUS2011", 12.47, 1,     7192.8,   -0.7,   0.99906, 2,     7192.8, -120.7,   0.99906, 3,     7192.8,  119.3,   0.99906
"BUS2012", 12.47, 1,     7192.8,   -0.7,   0.99906, 2,     7192.8, -120.7,   0.99906, 3,     7192.8,  119.3,   0.99906
"BUS2013", 12.47, 1,     7192.8,   -0.7,   0.99906, 2,     7192.8, -120.7,   0.99906, 3,     7192.8,  119.3,   0.99906
"BUS2014", 12.47, 1,     7192.8,   -0.7,   0.99906, 2,     7192.8, -120.7,   0.99906, 3,     7192.8,  119.3,   0.99906
"BUS2015", 12.47, 2,     7192.8, -120.7,   0.99906, 0, 0, 0, 0, 0, 0, 0, 0
"BUS2016", 12.47, 1,     7192.8,   -0.7,   0.99906, 2,     7192.8, -120.7,   0.99906, 3,     7192.8,  119.3,   0.99906
"BUS2017", 12.47, 1,     7192.8,   -0.7,   0.99906, 2,     7192.8, -120.7,   0.99906, 3,     7192.8,  119.3,   0.99906
"BUS2018", 12.47, 1,     7192.8,   -0.7,   0.99906, 2,     7192.8, -120.7,   0.99906, 3,     7192.8,  119.3,   0.99906
"BUS2019", 12.47, 1,     7192.8,   -0.7,   0.99906, 2,     7192.8, -120.7,   0.99906, 3,     7192.8,  119.3,   0.99906
"BUS2020", 12.47, 2,     7192.8, -120.7,   0.99906, 0, 0, 0, 0, 0, 0, 0, 0
"BUS2021", 12.47, 1,     7192.8,   -0.7,   0.99906, 2,     7192.8, -120.7,   0.99906, 3,     7192.8,  119.3,   0.99906
"BUS2022", 12.47, 3,     7192.8,  119.3,   0.99906, 0, 0, 0, 0, 0, 0, 0, 0
"BUS2023", 12.47, 3,     7192.8,  119.3,   0.99906, 0, 0, 0, 0, 0, 0, 0, 0
"BUS2024", 12.47, 3,     7192.8,  119.3,   0.99906, 0, 0, 0, 0, 0, 0, 0, 0
"BUS2025", 12.47, 3,     7192.8,  119.3,   0.99906, 0, 0, 0, 0, 0, 0, 0, 0
"BUS2026", 12.47, 1,     7192.8,   -0.7,   0.99906, 2,     7192.8, -120.7,   0.99906, 3,     7192.8,  119.3,   0.99906
"BUS2027", 12.47, 1,     7192.8,   -0.7,   0.99906, 2,     7192.8, -120.7,   0.99906, 3,     7192.8,  119.3,   0.99906
"BUS2028", 12.47, 1,     7192.8,   -0.7,   0.99906, 2,     7192.8, -120.7,   0.99906, 3,     7192.8,  119.3,   0.99906
"BUS2029", 12.47, 1,     7192.8,   -0.7,   0.99906, 2,     7192.8, -120.7,   0.99906, 3,     7192.8,  119.3,   0.99906
"BUS2030", 12.47, 1,     7192.8,   -0.7,   0.99906, 2,     7192.8, -120.7,   0.99906, 3,     7192.8,  119.3,   0.99906
"BUS2031", 12.47, 1,     7192.8,   -0.7,   0.99906, 2,     7192.8, -120.7,   0.99906, 3,     7192.8,  119.3,   0.99906
"BUS2032", 12.47, 1,     7192.8,   -0.7,   0.99906, 2,     7192.8, -120.7,   0.99906, 3,     7192.8,  119.3,   0.99906
"BUS2033", 12.47, 1,     7192.8,   -0.7,   0.99906, 2,     7192.8, -120.7,   0.99906, 3,     7192.8,  119.3,   0.99906
"BUS2034", 12.47, 1,     7192.8,   -0.7,   0.99906, 2,     7192.8, -120.7,   0.99906, 3,     7192.8,  119.3,   0.99906
"BUS2035", 12.47, 1,     7192.8,   -0.7,   0.99906, 2,     7192.8, -120.7,   0.99906, 3,     7192.8,  119.3,   0.99906
"BUS2036", 12.47, 1,     7192.8,   -0.7,   0.99906, 2,     7192.8, -120.7,   0.99906, 3,     7192.8,  119.3,   0.99906
"BUS2037", 12.47, 1,     7192.8,   -0.7,   0.99906, 2,     7192.8, -120.7,   0.99906, 3,     7192.8,  119.3,   0.99906
"BUS2038", 12.47, 1,     7192.8,   -0.7,   0.99906, 2,    7192.81, -120.7,   0.99906, 3,     7192.8,  119.3,   0.99906
"BUS2039", 12.47, 1,     7192.8,   -0.7,   0.99906, 2,    7192.81, -120.7,   0.99906, 3,     7192.8,  119.3,   0.99906
"BUS2040", 12.47, 1,     7192.8,   -0.7,   0.99906, 2,    7192.81, -120.7,   0.99906, 3,    7192.81,  119.3,   0.99906
"BUS2041", 12.47, 1,     7192.8,   -0.7,   0.99906, 2,    7192.81, -120.7,   0.99906, 3,    7192.81,  119.3,   0.99906
"BUS2042", 12.47, 1,     7192.8,   -0.7,   0.99906, 2,    7192.81, -120.7,   0.99906, 3,    7192.81,  119.3,   0.99906
"BUS2043", 12.47, 1,     7192.8,   -0.7,   0.99906, 2,    7192.81, -120.7,   0.99906, 3,    7192.81,  119.3,   0.99906
"BUS2044", 12.47, 1,     7192.8,   -0.7,   0.99906, 2,    7192.81, -120.7,   0.99906, 3,    7192.81,  119.3,   0.99906
"BUS2045", 12.47, 2,    7192.81, -120.7,   0.99906, 0, 0, 0, 0, 0, 0, 0, 0
"BUS2046", 12.47, 2,    7192.81, -120.7,   0.99906, 0, 0, 0, 0, 0, 0, 0, 0
"BUS2047", 12.47, 2,    7192.81, -120.7,   0.99906, 0, 0, 0, 0, 0, 0, 0, 0
"BUS2048", 12.47, 2,    7192.81, -120.7,   0.99906, 0, 0, 0, 0, 0, 0, 0, 0
"BUS2049", 12.47, 1,     7192.8,   -0.7,   0.99906, 2,    7192.81, -120.7,   0.99906, 3,    7192.81,  119.3,   0.99906
"BUS2050", 12.47, 1,     7192.8,   -0.7,   0.99906, 2,    7192.81, -120.7,   0.99906, 3,    7192.81,  119.3,   0.99906
"BUS2051", 12.47, 1,     7192.8,   -0.7,   0.99906, 2,    7192.81, -120.7,   0.99906, 3,    7192.81,  119.3,   0.99906
"BUS2052", 12.47, 1,     7192.8,   -0.7,   0.99906, 2,    7192.81, -120.7,   0.99906, 3,    7192.81,  119.3,   0.99906
"BUS2053", 12.47, 1,     7192.8,   -0.7,   0.99906, 2,    7192.81, -120.7,   0.99906, 3,    7192.81,  119.3,   0.99906
"BUS2054", 12.47, 1,     7192.8,   -0.7,   0.99906, 2,    7192.81, -120.7,   0.99906, 3,    7192.81,  119.3,   0.99906
"BUS2055", 12.47, 1,     7192.8,   -0.7,   0.99906, 2,    7192.81, -120.7,   0.99906, 3,    7192.81,  119.3,   0.99906
"BUS2056", 12.47, 1,     7192.8,   -0.7,   0.99906, 2,    7192.81, -120.7,   0.99906, 3,    7192.81,  119.3,   0.99906
"BUS2057", 12.47, 1,     7192.8,   -0.7,   0.99906, 2,    7192.81, -120.7,   0.99906, 3,    7192.81,  119.3,   0.99906
"BUS2058", 12.47, 1,     7192.8,   -0.7,   0.99906, 2,    7192.81, -120.7,   0.99906, 3,    7192.81,  119.3,   0.99906
"BUS2059", 12.47, 1,     7192.8,   -0.7,   0.99906, 2,    7192.81, -120.7,   0.99906, 3,    7192.81,  119.3,   0.99906
"BUS2060", 12.47, 1,     7192.8,   -0.7,   0.99906, 2,    7192.81, -120.7,   0.99906, 3,    7192.81,  119.3,   0.99906
"BUS3001", 12.47, 1,    7192.78,   -0.7,   0.99906, 2,    7192.78, -120.7,   0.99906, 3,    7192.78,  119.3,   0.99906
"BUS3003", 12.47, 1,    7204.37,   -0.1,    1.0007, 2,    7204.37, -120.1,    1.0007, 3,    7204.37,  119.9,    1.0007
"BUS3002", 12.47, 1,    7204.37,   -0.1,    1.0007, 2,    7204.37, -120.1,    1.0007, 3,    7204.37,  119.9,    1.0007
"BUS3004", 12.47, 1,    7205.85,   -0.1,    1.0009, 2,    7205.85, -120.1,    1.0009, 3,    7205.85,  119.9,    1.0009
"BUS3005", 12.47, 1,    7202.47,    0.0,    1.0004, 2,    7202.47, -120.0,    1.0004, 3,    7202.47,  120.0,    1.0004
"BUS3006", 12.47, 1,    7202.47,    0.0,    1.0004, 2,    7202.47, -120.0,    1.0004, 3,    7202.47,  120.0,    1.0004
"BUS3007", 12.47, 1,    7202.47,    0.0,    1.0004, 2,    7202.47, -120.0,    1.0004, 3,    7202.47,  120.0,    1.0004
"BUS3008", 12.47, 1,    7202.48,    0.0,    1.0004, 2,    7202.48, -120.0,    1.0004, 3,    7202.48,  120.0,    1.0004
"BUS3009", 12.47, 1,    7202.48,    0.0,    1.0004, 0, 0, 0, 0, 0, 0, 0, 0
"BUS3010", 12.47, 1,    7202.48,    0.0,    1.0004, 0, 0, 0, 0, 0, 0, 0, 0
"BUS3011", 12.47, 1,    7202.48,    0.0,    1.0004, 0, 0, 0, 0, 0, 0, 0, 0
"BUS3012", 12.47, 1,    7202.48,    0.0,    1.0004, 0, 0, 0, 0, 0, 0, 0, 0
"BUS3013", 12.47, 2,    7202.48, -120.0,    1.0004, 0, 0, 0, 0, 0, 0, 0, 0
"BUS3014", 12.47, 2,    7202.48, -120.0,    1.0004, 0, 0, 0, 0, 0, 0, 0, 0
"BUS3015", 12.47, 1,    7202.48,    0.0,    1.0004, 2,    7202.48, -120.0,    1.0004, 3,    7202.48,  120.0,    1.0004
"BUS3016", 12.47, 2,    7202.48, -120.0,    1.0004, 0, 0, 0, 0, 0, 0, 0, 0
"BUS3017", 12.47, 2,    7202.48, -120.0,    1.0004, 0, 0, 0, 0, 0, 0, 0, 0
"BUS3018", 12.47, 3,    7202.48,  120.0,    1.0004, 0, 0, 0, 0, 0, 0, 0, 0
"BUS3019", 12.47, 3,    7202.48,  120.0,    1.0004, 0, 0, 0, 0, 0, 0, 0, 0
"BUS3020", 12.47, 3,    7202.48,  120.0,    1.0004, 0, 0, 0, 0, 0, 0, 0, 0
"BUS3021", 12.47, 3,    7202.48,  120.0,    1.0004, 0, 0, 0, 0, 0, 0, 0, 0
"BUS3022", 12.47, 1,    7202.48,    0.0,    1.0004, 2,    7202.48, -120.0,    1.0004, 3,    7202.48,  120.0,    1.0004
"BUS3023", 12.47, 1,    7202.48,    0.0,    1.0004, 0, 0, 0, 0, 0, 0, 0, 0
"BUS3024", 12.47, 1,    7202.48,    0.0,    1.0004, 0, 0, 0, 0, 0, 0, 0, 0
"BUS3025", 12.47, 1,    7202.48,    0.0,    1.0004, 0, 0, 0, 0, 0, 0, 0, 0
"BUS3026", 12.47, 1,    7202.48,    0.0,    1.0004, 0, 0, 0, 0, 0, 0, 0, 0
"BUS3027", 12.47, 1,    7202.48,    0.0,    1.0004, 0, 0, 0, 0, 0, 0, 0, 0
"BUS3028", 12.47, 1,    7202.48,    0.0,    1.0004, 0, 0, 0, 0, 0, 0, 0, 0
"BUS3029", 12.47, 1,    7202.48,    0.0,    1.0004, 0, 0, 0, 0, 0, 0, 0, 0
"BUS3030", 12.47, 1,    7202.48,    0.0,    1.0004, 2,    7202.48, -120.0,    1.0004, 3,    7202.48,  120.0,    1.0004
"BUS3035", 12.47, 1,    7202.48,    0.0,    1.0004, 2,    7202.48, -120.0,    1.0004, 3,    7202.48,  120.0,    1.0004
"BUS3036", 12.47, 1,    7202.48,    0.0,    1.0004, 2,    7202.48, -120.0,    1.0004, 3,    7202.48,  120.0,    1.0004
"BUS3037", 12.47, 1,    7202.48,    0.0,    1.0004, 2,    7202.48, -120.0,    1.0004, 3,    7202.48,  120.0,    1.0004
"BUS3038", 12.47, 1,    7202.48,    0.0,    1.0004, 2,    7202.48, -120.0,    1.0004, 3,    7202.48,  120.0,    1.0004
"BUS3039", 12.47, 1,    7202.48,    0.0,    1.0004, 2,    7202.48, -120.0,    1.0004, 3,    7202.48,  120.0,    1.0004
"BUS3053", 12.47, 1,    7202.48,    0.0,    1.0004, 2,    7202.48, -120.0,    1.0004, 3,    7202.48,  120.0,    1.0004
"BUS3054", 12.47, 1,    7202.48,    0.0,    1.0004, 2,    7202.48, -120.0,    1.0004, 3,    7202.48,  120.0,    1.0004
"BUS3055", 12.47, 2,    7202.49, -120.0,    1.0004, 0, 0, 0, 0, 0, 0, 0, 0
"BUS3056", 12.47, 2,    7202.49, -120.0,    1.0004, 0, 0, 0, 0, 0, 0, 0, 0
"BUS3057", 12.47, 2,    7202.49, -120.0,    1.0004, 0, 0, 0, 0, 0, 0, 0, 0
"BUS3058", 12.47, 2,    7202.49, -120.0,    1.0004, 0, 0, 0, 0, 0, 0, 0, 0
"BUS3059", 12.47, 2,    7202.49, -120.0,    1.0004, 0, 0, 0, 0, 0, 0, 0, 0
"BUS3060", 12.47, 2,    7202.49, -120.0,    1.0004, 0, 0, 0, 0, 0, 0, 0, 0
"BUS3061", 12.47, 2,    7202.49, -120.0,    1.0004, 0, 0, 0, 0, 0, 0, 0, 0
"BUS3062", 12.47, 2,    7202.49, -120.0,    1.0004, 0, 0, 0, 0, 0, 0, 0, 0
"BUS3063", 12.47, 2,    7202.49, -120.0,    1.0004, 0, 0, 0, 0, 0, 0, 0, 0
"BUS3064", 12.47, 2,    7202.49, -120.0,    1.0004, 0, 0, 0, 0, 0, 0, 0, 0
"BUS3065", 12.47, 2,    7202.49, -120.0,    1.0004, 0, 0, 0, 0, 0, 0, 0, 0
"BUS3066", 12.47, 2,    7202.49, -120.0,    1.0004, 0, 0, 0, 0, 0, 0, 0, 0
"BUS3067", 12.47, 2,    7202.49, -120.0,    1.0004, 0, 0, 0, 0, 0, 0, 0, 0
"BUS3040", 12.47, 1,    7202.48,    0.0,    1.0004, 2,    7202.48, -120.0,    1.0004, 3,    7202.48,  120.0,    1.0004
"BUS3044", 12.47, 3,    7202.48,  120.0,    1.0004, 0, 0, 0, 0, 0, 0, 0, 0
"BUS3045", 12.47, 3,    7202.48,  120.0,    1.0004, 0, 0, 0, 0, 0, 0, 0, 0
"BUS3041", 12.47, 3,    7202.48,  120.0,    1.0004, 0, 0, 0, 0, 0, 0, 0, 0
"BUS3042", 12.47, 3,    7202.48,  120.0,    1.0004, 0, 0, 0, 0, 0, 0, 0, 0
"BUS3043", 12.47, 3,    7202.48,  120.0,    1.0004, 0, 0, 0, 0, 0, 0, 0, 0
"BUS3046", 12.47, 1,    7202.48,    0.0,    1.0004, 2,    7202.48, -120.0,    1.0004, 3,    7202.48,  120.0,    1.0004
"BUS3047", 12.47, 1,    7202.48,    0.0,    1.0004, 2,    7202.48, -120.0,    1.0004, 3,    7202.48,  120.0,    1.0004
"BUS3048", 12.47, 1,    7202.48,    0.0,    1.0004, 2,    7202.48, -120.0,    1.0004, 3,    7202.48,  120.0,    1.0004
"BUS3049", 12.47, 1,    7202.48,    0.0,    1.0004, 2,    7202.48, -120.0,    1.0004, 3,    7202.48,  120.0,    1.0004
"BUS3050", 12.47, 1,    7202.48,    0.0,    1.0004, 2,    7202.48, -120.0,    1.0004, 3,    7202.48,  120.0,    1.0004
"BUS3051", 12.47, 1,    7202.48,    0.0,    1.0004, 2,    7202.48, -120.0,    1.0004, 3,    7202.48,  120.0,    1.0004
"BUS3052", 12.47, 1,    7202.48,    0.0,    1.0004, 2,    7202.48, -120.0,    1.0004, 3,    7202.48,  120.0,    1.0004
"BUS3031", 12.47, 1,    7202.48,    0.0,    1.0004, 2,    7202.48, -120.0,    1.0004, 3,    7202.48,  120.0,    1.0004
"BUS3032", 12.47, 1,    7202.48,    0.0,    1.0004, 2,    7202.48, -120.0,    1.0004, 3,    7202.48,  120.0,    1.0004
"BUS3033", 12.47, 1,    7202.48,    0.0,    1.0004, 2,    7202.48, -120.0,    1.0004, 3,    7202.49,  120.0,    1.0004
"BUS3034", 12.47, 1,    7202.49,    0.0,    1.0004, 2,    7202.48, -120.0,    1.0004, 3,    7202.49,  120.0,    1.0004
"BUS3068", 12.47, 1,    7202.49,    0.0,    1.0004, 2,    7202.49, -120.0,    1.0004, 3,    7202.49,  120.0,    1.0004
"BUS3069", 12.47, 1,    7202.49,    0.0,    1.0004, 2,    7202.49, -120.0,    1.0004, 3,    7202.49,  120.0,    1.0004
"BUS3070", 12.47, 1,    7202.49,    0.0,    1.0004, 2,    7202.49, -120.0,    1.0004, 3,    7202.49,  120.0,    1.0004
"BUS3071", 12.47, 1,    7202.49,    0.0,    1.0004, 2,    7202.49, -120.0,    1.0004, 3,    7202.49,  120.0,    1.0004
"BUS3072", 12.47, 1,    7202.49,    0.0,    1.0004, 2,    7202.49, -120.0,    1.0004, 3,    7202.49,  120.0,    1.0004
"BUS3073", 12.47, 1,    7202.49,    0.0,    1.0004, 2,    7202.49, -120.0,    1.0004, 3,    7202.49,  120.0,    1.0004
"BUS3074", 12.47, 1,    7202.49,    0.0,    1.0004, 2,    7202.49, -120.0,    1.0004, 3,    7202.49,  120.0,    1.0004
"BUS3075", 12.47, 1,    7202.49,    0.0,    1.0004, 2,    7202.49, -120.0,    1.0004, 3,    7202.49,  120.0,    1.0004
"BUS3076", 12.47, 1,    7202.49,    0.0,    1.0004, 2,    7202.49, -120.0,    1.0004, 3,    7202.49,  120.0,    1.0004
"BUS3077", 12.47, 1,    7202.49,    0.0,    1.0004, 2,    7202.49, -120.0,    1.0004, 3,    7202.49,  120.0,    1.0004
"BUS3078", 12.47, 1,    7202.49,    0.0,    1.0004, 2,    7202.49, -120.0,    1.0004, 3,    7202.49,  120.0,    1.0004
"BUS3079", 12.47, 1,    7202.49,    0.0,    1.0004, 2,    7202.49, -120.0,    1.0004, 3,    7202.49,  120.0,    1.0004
"BUS3080", 12.47, 1,    7202.49,    0.0,    1.0004, 2,    7202.49, -120.0,    1.0004, 3,    7202.49,  120.0,    1.0004
"BUS3081", 12.47, 1,    7202.49,    0.0,    1.0004, 2,    7202.49, -120.0,    1.0004, 3,    7202.49,  120.0,    1.0004
"BUS3082", 12.47, 1,    7202.49,    0.0,    1.0004, 2,    7202.49, -120.0,    1.0004, 3,    7202.49,  120.0,    1.0004
"BUS3083", 12.47, 1,    7202.49,    0.0,    1.0004, 0, 0, 0, 0, 0, 0, 0, 0
"BUS3084", 12.47, 1,    7202.49,    0.0,    1.0004, 0, 0, 0, 0, 0, 0, 0, 0
"BUS3085", 12.47, 1,    7202.49,    0.0,    1.0004, 0, 0, 0, 0, 0, 0, 0, 0
"BUS3086", 12.47, 1,    7202.49,    0.0,    1.0004, 0, 0, 0, 0, 0, 0, 0, 0
"BUS3087", 12.47, 1,    7202.49,    0.0,    1.0004, 0, 0, 0, 0, 0, 0, 0, 0
"BUS3088", 12.47, 1,    7202.49,    0.0,    1.0004, 0, 0, 0, 0, 0, 0, 0, 0
"BUS3089", 12.47, 1,    7202.49,    0.0,    1.0004, 0, 0, 0, 0, 0, 0, 0, 0
"BUS3090", 12.47, 1,    7202.49,    0.0,    1.0004, 0, 0, 0, 0, 0, 0, 0, 0
"BUS3091", 12.47, 1,    7202.49,    0.0,    1.0004, 0, 0, 0, 0, 0, 0, 0, 0
"BUS3092", 12.47, 1,    7202.49,    0.0,    1.0004, 2,    7202.49, -120.0,    1.0004, 3,    7202.49,  120.0,    1.0004
"BUS3093", 12.47, 1,    7202.49,    0.0,    1.0004, 0, 0, 0, 0, 0, 0, 0, 0
"BUS3094", 12.47, 1,    7202.49,    0.0,    1.0004, 0, 0, 0, 0, 0, 0, 0, 0
"BUS3095", 12.47, 1,    7202.49,    0.0,    1.0004, 0, 0, 0, 0, 0, 0, 0, 0
"BUS3096", 12.47, 1,    7202.49,    0.0,    1.0004, 0, 0, 0, 0, 0, 0, 0, 0
"BUS3097", 12.47, 1,    7202.49,    0.0,    1.0004, 0, 0, 0, 0, 0, 0, 0, 0
"BUS3098", 12.47, 2,    7202.49, -120.0,    1.0004, 0, 0, 0, 0, 0, 0, 0, 0
"BUS3099", 12.47, 2,    7202.49, -120.0,    1.0004, 0, 0, 0, 0, 0, 0, 0, 0
"BUS3100", 12.47, 1,    7202.49,    0.0,    1.0004, 2,    7202.49, -120.0,    1.0004, 3,    7202.49,  120.0,    1.0004
"BUS3101", 12.47, 3,    7202.49,  120.0,    1.0004, 0, 0, 0, 0, 0, 0, 0, 0
"BUS3102", 12.47, 3,    7202.49,  120.0,    1.0004, 0, 0, 0, 0, 0, 0, 0, 0
"BUS3103", 12.47, 3,    7202.49,  120.0,    1.0004, 0, 0, 0, 0, 0, 0, 0, 0
"BUS3104", 12.47, 3,    7202.49,  120.0,    1.0004, 0, 0, 0, 0, 0, 0, 0, 0
"BUS3105", 12.47, 3,    7202.49,  120.0,    1.0004, 0, 0, 0, 0, 0, 0, 0, 0
"BUS3106", 12.47, 3,    7202.49,  120.0,    1.0004, 0, 0, 0, 0, 0, 0, 0, 0
"BUS3107", 12.47, 1,    7202.49,    0.0,    1.0004, 2,    7202.49, -120.0,    1.0004, 3,    7202.49,  120.0,    1.0004
"BUS3108", 12.47, 1,    7202.49,    0.0,    1.0004, 0, 0, 0, 0, 0, 0, 0, 0
"BUS3109", 12.47, 1,    7202.49,    0.0,    1.0004, 0, 0, 0, 0, 0, 0, 0, 0
"BUS3110", 12.47, 1,    7202.49,    0.0,    1.0004, 0, 0, 0, 0, 0, 0, 0, 0
"BUS3111", 12.47, 1,    7202.49,    0.0,    1.0004, 0, 0, 0, 0, 0, 0, 0, 0
"BUS3112", 12.47, 1,    7202.49,    0.0,    1.0004, 0, 0, 0, 0, 0, 0, 0, 0
"BUS3113", 12.47, 2,    7202.49, -120.0,    1.0004, 0, 0, 0, 0, 0, 0, 0, 0
"BUS3114", 12.47, 2,    7202.49, -120.0,    1.0004, 0, 0, 0, 0, 0, 0, 0, 0
"BUS3115", 12.47, 2,    7202.49, -120.0,    1.0004, 0, 0, 0, 0, 0, 0, 0, 0
"BUS3116", 12.47, 2,    7202.49, -120.0,    1.0004, 0, 0, 0, 0, 0, 0, 0, 0
"BUS3117", 12.47, 2,    7202.49, -120.0,    1.0004, 0, 0, 0, 0, 0, 0, 0, 0
"BUS3118", 12.47, 1,    7202.49,    0.0,    1.0004, 2,    7202.49, -120.0,    1.0004, 3,    7202.49,  120.0,    1.0004
"BUS3119", 12.47, 2,    7202.49, -120.0,    1.0004, 0, 0, 0, 0, 0, 0, 0, 0
"BUS3120", 12.47, 2,    7202.49, -120.0,    1.0004, 0, 0, 0, 0, 0, 0, 0, 0
"BUS3121", 12.47, 2,    7202.49, -120.0,    1.0004, 0, 0, 0, 0, 0, 0, 0, 0
"BUS3122", 12.47, 2,    7202.49, -120.0,    1.0004, 0, 0, 0, 0, 0, 0, 0, 0
"BUS3123", 12.47, 2,    7202.49, -120.0,    1.0004, 0, 0, 0, 0, 0, 0, 0, 0
...
"BUS_FAULT", 12.47, 1,    7192.78,   -0.7,   0.99906, 2,    7192.78, -120.7,   0.99906, 3,    7192.78,  119.3,   0.99906
"T_BUS1006_L", 0.208, 1,    108.413,   -0.7,   0.90277, 2,    108.413, -120.7,   0.90277, 0, 0, 0, 0
"T_BUS1007_L", 0.208, 1,    108.413,   -0.7,   0.90277, 2,    108.413, -120.7,   0.90277, 0, 0, 0, 0
"T_BUS1011_L", 0.208, 1,    108.329,   -0.7,   0.90208, 2,    108.329,  179.3,   0.90208, 0, 0, 0, 0
"T_BUS1012_L", 0.208, 1,    108.329, -120.7,   0.90208, 2,    108.329,   59.3,   0.90208, 0, 0, 0, 0
"T_BUS1014_L", 0.208, 1,    108.329, -120.7,   0.90208, 2,    108.329,   59.3,   0.90208, 0, 0, 0, 0
"T_BUS1015_L", 0.208, 1,    108.329, -120.7,   0.90208, 2,    108.329,   59.3,   0.90208, 0, 0, 0, 0
"T_BUS1016_L", 0.208, 1,    108.329,  119.3,   0.90208, 2,    108.329,  -60.7,   0.90208, 0, 0, 0, 0
"T_BUS1017_L", 0.208, 1,    108.329,  119.3,   0.90208, 2,    108.329,  -60.7,   0.90208, 0, 0, 0, 0
"T_BUS2008_L", 0.208, 1,    108.329,   -0.7,   0.90208, 2,    108.329,  179.3,   0.90208, 0, 0, 0, 0
"T_BUS2009_L", 0.208, 1,    108.329,   -0.7,   0.90208, 2,    108.329,  179.3,   0.90208, 0, 0, 0, 0
"T_BUS2014_L", 0.208, 1,    108.329, -120.7,   0.90208, 2,    108.329,   59.3,   0.90208, 0, 0, 0, 0
"T_BUS2015_L", 0.208, 1,    108.329, -120.7,   0.90208, 2,    108.329,   59.3,   0.90208, 0, 0, 0, 0
"T_BUS2016_L", 0.208, 1,    108.329, -120.7,   0.90208, 2,    108.329,   59.3,   0.90208, 0, 0, 0, 0
"T_BUS2017_L", 0.208, 1,    108.329, -120.7,   0.90208, 2,    108.329,   59.3,   0.90208, 0, 0, 0, 0
"T_BUS2018_L", 0.208, 1,    108.329, -120.7,   0.90208, 2,    108.329,   59.3,   0.90208, 0, 0, 0, 0
"T_BUS2020_L", 0.208, 1,    108.329, -120.7,   0.90208, 2,    108.329,   59.3,   0.90208, 0, 0, 0, 0
"T_BUS2022_L", 0.208, 1,    108.329,  119.3,   0.90208, 2,    108.329,  -60.7,   0.90208, 0, 0, 0, 0
"T_BUS2023_L", 0.208, 1,    108.329,  119.3,   0.90208, 2,    108.329,  -60.7,   0.90208, 0, 0, 0, 0
"T_BUS2024_L", 0.208, 1,    108.329,  119.3,   0.90208, 2,    108.329,  -60.7,   0.90208, 0, 0, 0, 0
"T_BUS2025_L", 0.208, 1,    108.329,  119.3,   0.90208, 2,    108.329,  -60.7,   0.90208, 0, 0, 0, 0
"T_BUS2028_L", 0.208, 1,    108.329,   -0.7,   0.90208, 2,    108.329,  179.3,   0.90208, 0, 0, 0, 0
"T_BUS2031_L", 0.208, 1,    108.329,   -0.7,   0.90208, 2,    108.329,  179.3,   0.90208, 0, 0, 0, 0
"T_BUS2045_L", 0.208, 1,    108.329, -120.7,   0.90208, 2,    108.329,   59.3,   0.90208, 0, 0, 0, 0
"T_BUS2046_L", 0.208, 1,    108.329, -120.7,   0.90208, 2,    108.329,   59.3,   0.90208, 0, 0, 0, 0
"T_BUS2047_L", 0.208, 1,    108.329, -120.7,   0.90208, 2,    108.329,   59.3,   0.90208, 0, 0, 0, 0
"T_BUS2048_L", 0.208, 1,    108.329, -120.7,   0.90208, 2,    108.329,   59.3,   0.90208, 0, 0, 0, 0
"T_BUS2049_L", 0.208, 1,    108.329,  119.3,   0.90208, 2,    108.329,  -60.7,   0.90208, 0, 0, 0, 0
"T_BUS2050_L", 0.208, 1,    108.329,  119.3,   0.90208, 2,    108.329,  -60.7,   0.90208, 0, 0, 0, 0
"T_BUS2051_L", 0.208, 1,    108.329,  119.3,   0.90208, 2,    108.329,  -60.7,   0.90208, 0, 0, 0, 0
"T_BUS2054_L", 0.208, 1,    108.329,   -0.7,   0.90208, 2,    108.329,  179.3,   0.90208, 0, 0, 0, 0
"T_BUS2055_L", 0.208, 1,    108.329,   -0.7,   0.90208, 2,    108.329,  179.3,   0.90208, 0, 0, 0, 0
"T_BUS2056_L", 0.208, 1,    108.329,   -0.7,   0.90208, 2,    108.329,  179.3,   0.90208, 0, 0, 0, 0
"T_BUS2059_L", 0.208, 1,    108.329, -120.7,   0.90208, 2,    108.329,   59.3,   0.90208, 0, 0, 0, 0
"T_BUS2060_L", 0.208, 1,    108.329, -120.7,   0.90208, 2,    108.329,   59.3,   0.90208, 0, 0, 0, 0
"T_BUS3009_L", 0.208, 1,    108.475,    0.0,   0.90329, 2,    108.475,  180.0,   0.90329, 0, 0, 0, 0
"T_BUS3010_L", 0.208, 1,    108.475,    0.0,   0.90329, 2,    108.475,  180.0,   0.90329, 0, 0, 0, 0
"T_BUS3011_L", 0.208, 1,    108.475,    0.0,   0.90329, 2,    108.475,  180.0,   0.90329, 0, 0, 0, 0
"T_BUS3012_L", 0.208, 1,    108.475,    0.0,   0.90329, 2,    108.475,  180.0,   0.90329, 0, 0, 0, 0
"T_BUS3013_L", 0.208, 1,    108.475, -120.0,   0.90329, 2,    108.475,   60.0,   0.90329, 0, 0, 0, 0
"T_BUS3014_L", 0.208, 1,    108.475, -120.0,   0.90329, 2,    108.475,   60.0,   0.90329, 0, 0, 0, 0
"T_BUS3016_L", 0.208, 1,    108.475, -120.0,   0.90329, 2,    108.475,   60.0,   0.90329, 0, 0, 0, 0
"T_BUS3017_L", 0.208, 1,    108.475, -120.0,   0.90329, 2,    108.475,   60.0,   0.90329, 0, 0, 0, 0
"T_BUS3018_L", 0.208, 1,    108.475,  120.0,   0.90329, 2,    108.475,  -60.0,   0.90329, 0, 0, 0, 0
"T_BUS3019_L", 0.208, 1,    108.475,  120.0,   0.90329, 2,    108.475,  -60.0,   0.90329, 0, 0, 0, 0
"T_BUS3020_L", 0.208, 1,    108.475,  120.0,   0.90329, 2,    108.475,  -60.0,   0.90329, 0, 0, 0, 0
"T_BUS3021_L", 0.208, 1,    108.475,  120.0,   0.90329, 2,    108.475,  -60.0,   0.90329, 0, 0, 0, 0
"T_BUS3023_L", 0.208, 1,    108.475,    0.0,   0.90329, 2,    108.475,  180.0,   0.90329, 0, 0, 0, 0
"T_BUS3024_L", 0.208, 1,    108.475,    0.0,   0.90329, 2,    108.475,  180.0,   0.90329, 0, 0, 0, 0
"T_BUS3025_L", 0.208, 1,    108.475,    0.0,   0.90329, 2,    108.475,  180.0,   0.90329, 0, 0, 0, 0
"T_BUS3026_L", 0.208, 1,    108.475,    0.0,   0.90329, 2,    108.475,  180.0,   0.90329, 0, 0, 0, 0
"T_BUS3027_L", 0.208, 1,    108.475,    0.0,   0.90329, 2,    108.475,  180.0,   0.90329, 0, 0, 0, 0
"T_BUS3028_L", 0.208, 1,    108.475,    0.0,   0.90329, 2,    108.475,  180.0,   0.90329, 0, 0, 0, 0
"T_BUS3029_L", 0.208, 1,    108.475,    0.0,   0.90329, 2,    108.475,  180.0,   0.90329, 0, 0, 0, 0
"T_BUS3041_L", 0.208, 1,    108.475,  120.0,   0.90329, 2,    108.475,  -60.0,   0.90329, 0, 0, 0, 0
"T_BUS3042_L", 0.208, 1,    108.475,  120.0,   0.90329, 2,    108.475,  -60.0,   0.90329, 0, 0, 0, 0
"T_BUS3043_L", 0.208, 1,    108.475,  120.0,   0.90329, 2,    108.475,  -60.0,   0.90329, 0, 0, 0, 0
"T_BUS3044_L", 0.208, 1,    108.475,  120.0,   0.90329, 2,    108.475,  -60.0,   0.90329, 0, 0, 0, 0
"T_BUS3045_L", 0.208, 1,    108.475,  120.0,   0.90329, 2,    108.475,  -60.0,   0.90329, 0, 0, 0, 0
"T_BUS3056_L", 0.208, 1,    108.475, -120.0,   0.90329, 2,    108.475,   60.0,   0.90329, 0, 0, 0, 0
"T_BUS3057_L", 0.208, 1,    108.475, -120.0,   0.90329, 2,    108.475,   60.0,   0.90329, 0, 0, 0, 0
"T_BUS3058_L", 0.208, 1,    108.475, -120.0,   0.90329, 2,    108.475,   60.0,   0.90329, 0, 0, 0, 0
"T_BUS3059_L", 0.208, 1,    108.475, -120.0,   0.90329, 2,    108.475,   60.0,   0.90329, 0, 0, 0, 0
"T_BUS3060_L", 0.208, 1,    108.475, -120.0,   0.90329, 2,    108.475,   60.0,   0.90329, 0, 0, 0, 0
"T_BUS3061_L", 0.208, 1,    108.475, -120.0,   0.90329, 2,    108.475,   60.0,   0.90329, 0, 0, 0, 0
"T_BUS3062_L", 0.208, 1,    108.475, -120.0,   0.90329, 2,    108.475,   60.0,   0.90329, 0, 0, 0, 0
"T_BUS3063_L", 0.208, 1,    108.475, -120.0,   0.90329, 2,    108.475,   60.0,   0.90329, 0, 0, 0, 0
"T_BUS3064_L", 0.208, 1,    108.475, -120.0,   0.90329, 2,    108.475,   60.0,   0.90329, 0, 0, 0, 0
"T_BUS3065_L", 0.208, 1,    108.475, -120.0,   0.90329, 2,    108.475,   60.0,   0.90329, 0, 0, 0, 0
"T_BUS3066_L", 0.208, 1,    108.475, -120.0,   0.90329, 2,    108.475,   60.0,   0.90329, 0, 0, 0, 0
"T_BUS3067_L", 0.208, 1,    108.475, -120.0,   0.90329, 2,    108.475,   60.0,   0.90329, 0, 0, 0, 0
"T_BUS3083_L", 0.208, 1,    108.475,    0.0,   0.90329, 2,    108.475,  180.0,   0.90329, 0, 0, 0, 0
"T_BUS3084_L", 0.208, 1,    108.475,    0.0,   0.90329, 2,    108.475,  180.0,   0.90329, 0, 0, 0, 0
"T_BUS3085_L", 0.208, 1,    108.475,    0.0,   0.90329, 2,    108.475,  180.0,   0.90329, 0, 0, 0, 0
"T_BUS3086_L", 0.208, 1,    108.475,    0.0,   0.90329, 2,    108.475,  180.0,   0.90329, 0, 0, 0, 0
"T_BUS3087_L", 0.208, 1,    108.475,    0.0,   0.90329, 2,    108.475,  180.0,   0.90329, 0, 0, 0, 0
"T_BUS3088_L", 0.208, 1,    108.475,    0.0,   0.90329, 2,    108.475,  180.0,   0.90329, 0, 0, 0, 0
"T_BUS3089_L", 0.208, 1,    108.475,    0.0,   0.90329, 2,    108.475,  180.0,   0.90329, 0, 0, 0, 0
"T_BUS3090_L", 0.208, 1,    108.475,    0.0,   0.90329, 2,    108.475,  180.0,   0.90329, 0, 0, 0, 0
"T_BUS3091_L", 0.208, 1,    108.475,    0.0,   0.90329, 2,    108.475,  180.0,   0.90329, 0, 0, 0, 0
"T_BUS3093_L", 0.208, 1,    108.475,    0.0,   0.90329, 2,    108.475,  180.0,   0.90329, 0, 0, 0, 0
"T_BUS3094_L", 0.208, 1,    108.475,    0.0,   0.90329, 2,    108.475,  180.0,   0.90329, 0, 0, 0, 0
"T_BUS3095_L", 0.208, 1,    108.475,    0.0,   0.90329, 2,    108.475,  180.0,   0.90329, 0, 0, 0, 0
"T_BUS3096_L", 0.208, 1,    108.475,    0.0,   0.90329, 2,    108.475,  180.0,   0.90329, 0, 0, 0, 0
"T_BUS3097_L", 0.208, 1,    108.475,    0.0,   0.90329, 2,    108.475,  180.0,   0.90329, 0, 0, 0, 0
"T_BUS3098_L", 0.208, 1,    108.475, -120.0,   0.90329, 2,    108.475,   60.0,   0.90329, 0, 0, 0, 0
"T_BUS3099_L", 0.208, 1,    108.475, -120.0,   0.90329, 2,    108.475,   60.0,   0.90329, 0, 0, 0, 0
"T_BUS3101_L", 0.208, 1,    108.475,  120.0,   0.90329, 2,    108.475,  -60.0,   0.90329, 0, 0, 0, 0
"T_BUS3102_L", 0.208, 1,    108.475,  120.0,   0.90329, 2,    108.475,  -60.0,   0.90329, 0, 0, 0, 0
"T_BUS3103_L", 0.208, 1,    108.475,  120.0,   0.90329, 2,    108.475,  -60.0,   0.90329, 0, 0, 0, 0
"T_BUS3104_L", 0.208, 1,    108.475,  120.0,   0.90329, 2,    108.475,  -60.0,   0.90329, 0, 0, 0, 0
"T_BUS3105_L", 0.208, 1,    108.475,  120.0,   0.90329, 2,    108.475,  -60.0,   0.90329, 0, 0, 0, 0
"T_BUS3106_L", 0.208, 1,    108.475,  120.0,   0.90329, 2,    108.475,  -60.0,   0.90329, 0, 0, 0, 0
"T_BUS3108_L", 0.208, 1,    108.475,    0.0,   0.90329, 2,    108.475,  180.0,   0.90329, 0, 0, 0, 0
"T_BUS3109_L", 0.208, 1,    108.475,    0.0,   0.90329, 2,    108.475,  180.0,   0.90329, 0, 0, 0, 0
"T_BUS3110_L", 0.208, 1,    108.475,    0.0,   0.90329, 2,    108.475,  180.0,   0.90329, 0, 0, 0, 0
"T_BUS3111_L", 0.208, 1,    108.475,    0.0,   0.90329, 2,    108.475,  180.0,   0.90329, 0, 0, 0, 0
"T_BUS3112_L", 0.208, 1,    108.475,    0.0,   0.90329, 2,    108.475,  180.0,   0.90329, 0, 0, 0, 0
...