data/projects/mackelroy/hosting_capacity/240_node_test_system_EXP_VOLTAGES.csv
Bus, BasekV, Node1, Magnitude1, Angle1, pu1, Node2, Magnitude2, Angle2, pu2, Node3, Magnitude3, Angle3, pu3, Node4, Magnitude4, Angle4, pu4, Node5, Magnitude5, Angle5, pu5, Node6, Magnitude6, Angle6, pu6
"EQ_SOURCE_BUS", 115, 1,    39837.4,    0.0,       0.6, 2,    39837.4, -120.0,       0.6, 3,    39837.4,  120.0,       0.6, 0, 0, 0, 0, 0, 0, 0, 0, 0, 0, 0, 0
"BUS1001", 12.47, 1,     8166.8,  -30.0,    1.1343, 2,     8166.8, -150.0,    1.1343, 3,     8166.8,   90.0,    1.1343, 0, 0, 0, 0, 0, 0, 0, 0, 0, 0, 0, 0
"BUS1002", 12.47, 1,     8166.8,  -30.0,    1.1343, 2,     8166.8, -150.0,    1.1343, 3,     8166.8,   90.0,    1.1343, 0, 0, 0, 0, 0, 0, 0, 0, 0, 0, 0, 0
"BUS1003", 12.47, 1,     8166.8,  -30.0,    1.1343, 2,     8166.8, -150.0,    1.1343, 3,     8166.8,   90.0,    1.1343, 0, 0, 0, 0, 0, 0, 0, 0, 0, 0, 0, 0
"BUS1004", 12.47, 1,     8166.8,  -30.0,    1.1343, 2,     8166.8, -150.0,    1.1343, 3,     8166.8,   90.0,    1.1343, 0, 0, 0, 0, 0, 0, 0, 0, 0, 0, 0, 0
"BUS1005", 12.47, 1,     8166.8,  -30.0,    1.1343, 2,     8166.8, -150.0,    1.1343, 3,     8166.8,   90.0,    1.1343, 0, 0, 0, 0, 0, 0, 0, 0, 0, 0, 0, 0
"BUS1006", 12.47, 1,     8166.8,  -30.0,    1.1343, 2,    8166.81, -150.0,    1.1343, 3,     8166.8,   90.0,    1.1343, 0, 0, 0, 0, 0, 0, 0, 0, 0, 0, 0, 0
"BUS1007", 12.47, 1,     8166.8,  -30.0,    1.1343, 2,    8166.81, -150.0,    1.1343, 0, 0, 0, 0, 0, 0, 0, 0, 0, 0, 0, 0, 0, 0, 0, 0
"BUS1008", 12.47, 1,     8166.8,  -30.0,    1.1343, 2,    8166.81, -150.0,    1.1343, 3,     8166.8,   90.0,    1.1343, 0, 0, 0, 0, 0, 0, 0, 0, 0, 0, 0, 0
"BUS1009", 12.47, 1,     8166.8,  -30.0,    1.1343, 2,    8166.81, -150.0,    1.1343, 3,     8166.8,   90.0,    1.1343, 0, 0, 0, 0, 0, 0, 0, 0, 0, 0, 0, 0
"BUS1010", 12.47, 1,     8166.8,  -30.0,    1.1343, 2,    8166.81, -150.0,    1.1343, 3,     8166.8,   90.0,    1.1343, 4,     8166.8,  -30.0,    1.1343, 5,    8166.81, -150.0,    1.1343, 6,     8166.8,   90.0,    1.1343
"BUS1011", 12.47, 1,     8166.8,  -30.0,    1.1343, 2,    8166.81, -150.0,    1.1343, 3,     8166.8,   90.0,    1.1343, 0, 0, 0, 0, 0, 0, 0, 0, 0, 0, 0, 0
"BUS1012", 12.47, 1,     8166.8,  -30.0,    1.1343, 2,    8166.81, -150.0,    1.1343, 3,     8166.8,   90.0,    1.1343, 0, 0, 0, 0, 0, 0, 0, 0, 0, 0, 0, 0
"BUS1013", 12.47, 1,     8166.8,  -30.0,    1.1343, 2,    8166.81, -150.0,    1.1343, 3,     8166.8,   90.0,    1.1343, 0, 0, 0, 0, 0, 0, 0, 0, 0, 0, 0, 0
"BUS1014", 12.47, 2,    8166.81, -150.0,    1.1343, 0, 0, 0, 0, 0, 0, 0, 0, 0, 0, 0, 0, 0, 0, 0, 0, 0, 0, 0, 0
"BUS1015", 12.47, 2,    8166.81, -150.0,    1.1343, 0, 0, 0, 0, 0, 0, 0, 0, 0, 0, 0, 0, 0, 0, 0, 0, 0, 0, 0, 0
"BUS1016", 12.47, 3,     8166.8,   90.0,    1.1343, 0, 0, 0, 0, 0, 0, 0, 0, 0, 0, 0, 0, 0, 0, 0, 0, 0, 0, 0, 0
"BUS1017", 12.47, 3,     8166.8,   90.0,    1.1343, 0, 0, 0, 0, 0, 0, 0, 0, 0, 0, 0, 0, 0, 0, 0, 0, 0, 0, 0, 0
"BUS2001", 12.47, 1,     8166.8,  -30.0,    1.1343, 2,     8166.8, -150.0,    1.1343, 3,     8166.8,   90.0,    1.1343, 0, 0, 0, 0, 0, 0, 0, 0, 0, 0, 0, 0
"BUS2002", 12.47, 1,     8166.8,  -30.0,    1.1343, 2,     8166.8, -150.0,    1.1343, 3,     8166.8,   90.0,    1.1343, 0, 0, 0, 0, 0, 0, 0, 0, 0, 0, 0, 0
"BUS2003", 12.47, 1,    8166.81,  -30.0,    1.1343, 2,    8166.81, -150.0,    1.1343, 3,    8166.81,   90.0,    1.1343, 0, 0, 0, 0, 0, 0, 0, 0, 0, 0, 0, 0
"BUS2004", 12.47, 1,    8166.81,  -30.0,    1.1343, 2,    8166.82, -150.0,    1.1343, 3,    8166.81,   90.0,    1.1343, 0, 0, 0, 0, 0, 0, 0, 0, 0, 0, 0, 0
"BUS2005", 12.47, 1,    8166.81,  -30.0,    1.1343, 2,    8166.82, -150.0,    1.1343, 3,    8166.81,   90.0,    1.1343, 0, 0, 0, 0, 0, 0, 0, 0, 0, 0, 0, 0
"BUS2006", 12.47, 1,    8166.81,  -30.0,    1.1343, 2,    8166.82, -150.0,    1.1343, 3,    8166.82,   90.0,    1.1343, 0, 0, 0, 0, 0, 0, 0, 0, 0, 0, 0, 0
"BUS2007", 12.47, 1,    8166.81,  -30.0,    1.1343, 0, 0, 0, 0, 0, 0, 0, 0, 0, 0, 0, 0, 0, 0, 0, 0, 0, 0, 0, 0
"BUS2008", 12.47, 1,    8166.81,  -30.0,    1.1343, 0, 0, 0, 0, 0, 0, 0, 0, 0, 0, 0, 0, 0, 0, 0, 0, 0, 0, 0, 0
"BUS2009", 12.47, 1,    8166.81,  -30.0,    1.1343, 0, 0, 0, 0, 0, 0, 0, 0, 0, 0, 0, 0, 0, 0, 0, 0, 0, 0, 0, 0
"BUS2010", 12.47, 1,    8166.81,  -30.0,    1.1343, 2,    8166.82, -150.0,    1.1344, 3,    8166.82,   90.0,    1.1343, 0, 0, 0, 0, 0, 0, 0, 0, 0, 0, 0, 0
"BUS2011", 12.47, 1,    8166.81,  -30.0,    1.1343, 2,    8166.82, -150.0,    1.1344, 3,    8166.82,   90.0,    1.1343, 0, 0, 0, 0, 0, 0, 0, 0, 0, 0, 0, 0
"BUS2012", 12.47, 1,    8166.82,  -30.0,    1.1343, 2,    8166.82, -150.0,    1.1344, 3,    8166.82,   90.0,    1.1344, 0, 0, 0, 0, 0, 0, 0, 0, 0, 0, 0, 0
"BUS2013", 12.47, 1,    8166.82,  -30.0,    1.1343, 2,    8166.82, -150.0,    1.1344, 3,    8166.82,   90.0,    1.1344, 4,    8166.82,  -30.0,    1.1343, 5,    8166.82, -150.0,    1.1344, 6,    8166.82,   90.0,    1.1344
"BUS2014", 12.47, 1,    8166.82,  -30.0,    1.1343, 2,    8166.82, -150.0,    1.1344, 3,    8166.82,   90.0,    1.1344, 0, 0, 0, 0, 0, 0, 0, 0, 0, 0, 0, 0
"BUS2015", 12.47, 2,    8166.82, -150.0,    1.1344, 0, 0, 0, 0, 0, 0, 0, 0, 0, 0, 0, 0, 0, 0, 0, 0, 0, 0, 0, 0
"BUS2016", 12.47, 1,    8166.82,  -30.0,    1.1343, 2,    8166.82, -150.0,    1.1344, 3,    8166.82,   90.0,    1.1344, 0, 0, 0, 0, 0, 0, 0, 0, 0, 0, 0, 0
"BUS2017", 12.47, 1,    8166.82,  -30.0,    1.1343, 2,    8166.82, -150.0,    1.1344, 3,    8166.82,   90.0,    1.1344, 0, 0, 0, 0, 0, 0, 0, 0, 0, 0, 0, 0
"BUS2018", 12.47, 1,    8166.82,  -30.0,    1.1343, 2,    8166.82, -150.0,    1.1344, 3,    8166.82,   90.0,    1.1344, 0, 0, 0, 0, 0, 0, 0, 0, 0, 0, 0, 0
"BUS2019", 12.47, 1,    8166.82,  -30.0,    1.1343, 2,    8166.82, -150.0,    1.1344, 3,    8166.82,   90.0,    1.1344, 0, 0, 0, 0, 0, 0, 0, 0, 0, 0, 0, 0
"BUS2020", 12.47, 2,    8166.82, -150.0,    1.1344, 0, 0, 0, 0, 0, 0, 0, 0, 0, 0, 0, 0, 0, 0, 0, 0, 0, 0, 0, 0
"BUS2021", 12.47, 1,    8166.82,  -30.0,    1.1343, 2,    8166.82, -150.0,    1.1344, 3,    8166.82,   90.0,    1.1344, 0, 0, 0, 0, 0, 0, 0, 0, 0, 0, 0, 0
"BUS2022", 12.47, 3,    8166.82,   90.0,    1.1344, 0, 0, 0, 0, 0, 0, 0, 0, 0, 0, 0, 0, 0, 0, 0, 0, 0, 0, 0, 0
"BUS2023", 12.47, 3,    8166.82,   90.0,    1.1344, 0, 0, 0, 0, 0, 0, 0, 0, 0, 0, 0, 0, 0, 0, 0, 0, 0, 0, 0, 0
"BUS2024", 12.47, 3,    8166.82,   90.0,    1.1344, 0, 0, 0, 0, 0, 0, 0, 0, 0, 0, 0, 0, 0, 0, 0, 0, 0, 0, 0, 0
"BUS2025", 12.47, 3,    8166.82,   90.0,    1.1344, 0, 0, 0, 0, 0, 0, 0, 0, 0, 0, 0, 0, 0, 0, 0, 0, 0, 0, 0, 0
"BUS2026", 12.47, 1,    8166.82,  -30.0,    1.1343, 2,    8166.82, -150.0,    1.1344, 3,    8166.82,   90.0,    1.1344, 0, 0, 0, 0, 0, 0, 0, 0, 0, 0, 0, 0
"BUS2027", 12.47, 1,    8166.82,  -30.0,    1.1343, 2,    8166.82, -150.0,    1.1344, 3,    8166.82,   90.0,    1.1344, 0, 0, 0, 0, 0, 0, 0, 0, 0, 0, 0, 0
"BUS2028", 12.47, 1,    8166.82,  -30.0,    1.1343, 2,    8166.82, -150.0,    1.1344, 3,    8166.82,   90.0,    1.1344, 0, 0, 0, 0, 0, 0, 0, 0, 0, 0, 0, 0
"BUS2029", 12.47, 1,    8166.82,  -30.0,    1.1343, 2,    8166.82, -150.0,    1.1344, 3,    8166.82,   90.0,    1.1344, 0, 0, 0, 0, 0, 0, 0, 0, 0, 0, 0, 0
"BUS2030", 12.47, 1,    8166.82,  -30.0,    1.1343, 2,    8166.82, -150.0,    1.1344, 3,    8166.82,   90.0,    1.1344, 0, 0, 0, 0, 0, 0, 0, 0, 0, 0, 0, 0
"BUS2031", 12.47, 1,    8166.82,  -30.0,    1.1343, 2,    8166.82, -150.0,    1.1344, 3,    8166.82,   90.0,    1.1344, 0, 0, 0, 0, 0, 0, 0, 0, 0, 0, 0, 0
"BUS2032", 12.47, 1,    8166.82,  -30.0,    1.1343, 2,    8166.82, -150.0,    1.1344, 3,    8166.82,   90.0,    1.1344, 0, 0, 0, 0, 0, 0, 0, 0, 0, 0, 0, 0
"BUS2033", 12.47, 1,    8166.82,  -30.0,    1.1343, 2,    8166.83, -150.0,    1.1344, 3,    8166.82,   90.0,    1.1344, 0, 0, 0, 0, 0, 0, 0, 0, 0, 0, 0, 0
"BUS2034", 12.47, 1,    8166.82,  -30.0,    1.1343, 2,    8166.83, -150.0,    1.1344, 3,    8166.82,   90.0,    1.1344, 0, 0, 0, 0, 0, 0, 0, 0, 0, 0, 0, 0
"BUS2035", 12.47, 1,    8166.82,  -30.0,    1.1343, 2,    8166.83, -150.0,    1.1344, 3,    8166.82,   90.0,    1.1344, 0, 0, 0, 0, 0, 0, 0, 0, 0, 0, 0, 0
"BUS2036", 12.47, 1,    8166.82,  -30.0,    1.1344, 2,    8166.83, -150.0,    1.1344, 3,    8166.82,   90.0,    1.1344, 0, 0, 0, 0, 0, 0, 0, 0, 0, 0, 0, 0
"BUS2037", 12.47, 1,    8166.82,  -30.0,    1.1344, 2,    8166.83, -150.0,    1.1344, 3,    8166.82,   90.0,    1.1344, 0, 0, 0, 0, 0, 0, 0, 0, 0, 0, 0, 0
"BUS2038", 12.47, 1,    8166.82,  -30.0,    1.1344, 2,    8166.83, -150.0,    1.1344, 3,    8166.82,   90.0,    1.1344, 0, 0, 0, 0, 0, 0, 0, 0, 0, 0, 0, 0
"BUS2039", 12.47, 1,    8166.82,  -30.0,    1.1344, 2,    8166.83, -150.0,    1.1344, 3,    8166.82,   90.0,    1.1344, 0, 0, 0, 0, 0, 0, 0, 0, 0, 0, 0, 0
"BUS2040", 12.47, 1,    8166.82,  -30.0,    1.1344, 2,    8166.83, -150.0,    1.1344, 3,    8166.82,   90.0,    1.1344, 0, 0, 0, 0, 0, 0, 0, 0, 0, 0, 0, 0
"BUS2041", 12.47, 1,    8166.82,  -30.0,    1.1344, 2,    8166.83, -150.0,    1.1344, 3,    8166.82,   90.0,    1.1344, 0, 0, 0, 0, 0, 0, 0, 0, 0, 0, 0, 0
"BUS2042", 12.47, 1,    8166.82,  -30.0,    1.1344, 2,    8166.83, -150.0,    1.1344, 3,    8166.82,   90.0,    1.1344, 0, 0, 0, 0, 0, 0, 0, 0, 0, 0, 0, 0
"BUS2043", 12.47, 1,    8166.82,  -30.0,    1.1344, 2,    8166.83, -150.0,    1.1344, 3,    8166.82,   90.0,    1.1344, 0, 0, 0, 0, 0, 0, 0, 0, 0, 0, 0, 0
"BUS2044", 12.47, 1,    8166.82,  -30.0,    1.1344, 2,    8166.83, -150.0,    1.1344, 3,    8166.82,   90.0,    1.1344, 0, 0, 0, 0, 0, 0, 0, 0, 0, 0, 0, 0
"BUS2045", 12.47, 2,    8166.83, -150.0,    1.1344, 0, 0, 0, 0, 0, 0, 0, 0, 0, 0, 0, 0, 0, 0, 0, 0, 0, 0, 0, 0
"BUS2046", 12.47, 2,    8166.83, -150.0,    1.1344, 0, 0, 0, 0, 0, 0, 0, 0, 0, 0, 0, 0, 0, 0, 0, 0, 0, 0, 0, 0
"BUS2047", 12.47, 2,    8166.83, -150.0,    1.1344, 0, 0, 0, 0, 0, 0, 0, 0, 0, 0, 0, 0, 0, 0, 0, 0, 0, 0, 0, 0
"BUS2048", 12.47, 2,    8166.83, -150.0,    1.1344, 0, 0, 0, 0, 0, 0, 0, 0, 0, 0, 0, 0, 0, 0, 0, 0, 0, 0, 0, 0
"BUS2049", 12.47, 1,    8166.82,  -30.0,    1.1344, 2,    8166.83, -150.0,    1.1344, 3,    8166.82,   90.0,    1.1344, 0, 0, 0, 0, 0, 0, 0, 0, 0, 0, 0, 0
"BUS2050", 12.47, 1,    8166.82,  -30.0,    1.1344, 2,    8166.83, -150.0,    1.1344, 3,    8166.83,   90.0,    1.1344, 0, 0, 0, 0, 0, 0, 0, 0, 0, 0, 0, 0
"BUS2051", 12.47, 1,    8166.82,  -30.0,    1.1344, 2,    8166.83, -150.0,    1.1344, 3,    8166.83,   90.0,    1.1344, 0, 0, 0, 0, 0, 0, 0, 0, 0, 0, 0, 0
"BUS2052", 12.47, 1,    8166.82,  -30.0,    1.1344, 2,    8166.83, -150.0,    1.1344, 3,    8166.83,   90.0,    1.1344, 0, 0, 0, 0, 0, 0, 0, 0, 0, 0, 0, 0
"BUS2053", 12.47, 1,    8166.82,  -30.0,    1.1344, 2,    8166.83, -150.0,    1.1344, 3,    8166.83,   90.0,    1.1344, 0, 0, 0, 0, 0, 0, 0, 0, 0, 0, 0, 0
"BUS2054", 12.47, 1,    8166.82,  -30.0,    1.1344, 2,    8166.83, -150.0,    1.1344, 3,    8166.83,   90.0,    1.1344, 0, 0, 0, 0, 0, 0, 0, 0, 0, 0, 0, 0
"BUS2055", 12.47, 1,    8166.82,  -30.0,    1.1344, 2,    8166.83, -150.0,    1.1344, 3,    8166.83,   90.0,    1.1344, 0, 0, 0, 0, 0, 0, 0, 0, 0, 0, 0, 0
"BUS2056", 12.47, 1,    8166.82,  -30.0,    1.1344, 2,    8166.83, -150.0,    1.1344, 3,    8166.83,   90.0,    1.1344, 0, 0, 0, 0, 0, 0, 0, 0, 0, 0, 0, 0
"BUS2057", 12.47, 1,    8166.82,  -30.0,    1.1344, 2,    8166.83, -150.0,    1.1344, 3,    8166.83,   90.0,    1.1344, 0, 0, 0, 0, 0, 0, 0, 0, 0, 0, 0, 0
"BUS2058", 12.47, 1,    8166.82,  -30.0,    1.1344, 2,    8166.83, -150.0,    1.1344, 3,    8166.83,   90.0,    1.1344, 0, 0, 0, 0, 0, 0, 0, 0, 0, 0, 0, 0
"BUS2059", 12.47, 1,    8166.82,  -30.0,    1.1344, 2,    8166.83, -150.0,    1.1344, 3,    8166.83,   90.0,    1.1344, 0, 0, 0, 0, 0, 0, 0, 0, 0, 0, 0, 0
"BUS2060", 12.47, 1,    8166.82,  -30.0,    1.1344, 2,    8166.83, -150.0,    1.1344, 3,    8166.83,   90.0,    1.1344, 0, 0, 0, 0, 0, 0, 0, 0, 0, 0, 0, 0
"BUS3001", 12.47, 1,     8166.8,  -30.0,    1.1343, 2,     8166.8, -150.0,    1.1343, 3,     8166.8,   90.0,    1.1343, 0, 0, 0, 0, 0, 0, 0, 0, 0, 0, 0, 0
"BUS3003", 12.47, 1,    8166.81,  -30.0,    1.1343, 2,    8166.81, -150.0,    1.1343, 3,    8166.81,   90.0,    1.1343, 0, 0, 0, 0, 0, 0, 0, 0, 0, 0, 0, 0
"BUS3002", 12.47, 1,    8166.81,  -30.0,    1.1343, 2,    8166.81, -150.0,    1.1343, 3,    8166.81,   90.0,    1.1343, 0, 0, 0, 0, 0, 0, 0, 0, 0, 0, 0, 0
"BUS3004", 12.47, 1,    8166.81,  -30.0,    1.1343, 2,    8166.81, -150.0,    1.1343, 3,    8166.81,   90.0,    1.1343, 0, 0, 0, 0, 0, 0, 0, 0, 0, 0, 0, 0
"BUS3005", 12.47, 1,    8166.82,  -30.0,    1.1343, 2,    8166.82, -150.0,    1.1344, 3,    8166.82,   90.0,    1.1343, 0, 0, 0, 0, 0, 0, 0, 0, 0, 0, 0, 0
"BUS3006", 12.47, 1,    8166.82,  -30.0,    1.1343, 2,    8166.82, -150.0,    1.1344, 3,    8166.82,   90.0,    1.1343, 0, 0, 0, 0, 0, 0, 0, 0, 0, 0, 0, 0
"BUS3007", 12.47, 1,    8166.82,  -30.0,    1.1343, 2,    8166.82, -150.0,    1.1344, 3,    8166.82,   90.0,    1.1343, 0, 0, 0, 0, 0, 0, 0, 0, 0, 0, 0, 0
"BUS3008", 12.47, 1,    8166.82,  -30.0,    1.1343, 2,    8166.82, -150.0,    1.1344, 3,    8166.82,   90.0,    1.1343, 0, 0, 0, 0, 0, 0, 0, 0, 0, 0, 0, 0
"BUS3009", 12.47, 1,    8166.82,  -30.0,    1.1343, 0, 0, 0, 0, 0, 0, 0, 0, 0, 0, 0, 0, 0, 0, 0, 0, 0, 0, 0, 0
"BUS3010", 12.47, 1,    8166.82,  -30.0,    1.1343, 0, 0, 0, 0, 0, 0, 0, 0, 0, 0, 0, 0, 0, 0, 0, 0, 0, 0, 0, 0
"BUS3011", 12.47, 1,    8166.82,  -30.0,    1.1343, 0, 0, 0, 0, 0, 0, 0, 0, 0, 0, 0, 0, 0, 0, 0, 0, 0, 0, 0, 0
"BUS3012", 12.47, 1,    8166.82,  -30.0,    1.1343, 0, 0, 0, 0, 0, 0, 0, 0, 0, 0, 0, 0, 0, 0, 0, 0, 0, 0, 0, 0
"BUS3013", 12.47, 2,    8166.82, -150.0,    1.1344, 0, 0, 0, 0, 0, 0, 0, 0, 0, 0, 0, 0, 0, 0, 0, 0, 0, 0, 0, 0
"BUS3014", 12.47, 2,    8166.82, -150.0,    1.1344, 0, 0, 0, 0, 0, 0, 0, 0, 0, 0, 0, 0, 0, 0, 0, 0, 0, 0, 0, 0
"BUS3015", 12.47, 1,    8166.82,  -30.0,    1.1344, 2,    8166.82, -150.0,    1.1344, 3,    8166.82,   90.0,    1.1344, 0, 0, 0, 0, 0, 0, 0, 0, 0, 0, 0, 0
"BUS3016", 12.47, 2,    8166.82, -150.0,    1.1344, 0, 0, 0, 0, 0, 0, 0, 0, 0, 0, 0, 0, 0, 0, 0, 0, 0, 0, 0, 0
"BUS3017", 12.47, 2,    8166.82, -150.0,    1.1344, 0, 0, 0, 0, 0, 0, 0, 0, 0, 0, 0, 0, 0, 0, 0, 0, 0, 0, 0, 0
"BUS3018", 12.47, 3,    8166.82,   90.0,    1.1344, 0, 0, 0, 0, 0, 0, 0, 0, 0, 0, 0, 0, 0, 0, 0, 0, 0, 0, 0, 0
"BUS3019", 12.47, 3,    8166.82,   90.0,    1.1344, 0, 0, 0, 0, 0, 0, 0, 0, 0, 0, 0, 0, 0, 0, 0, 0, 0, 0, 0, 0
"BUS3020", 12.47, 3,    8166.82,   90.0,    1.1344, 0, 0, 0, 0, 0, 0, 0, 0, 0, 0, 0, 0, 0, 0, 0, 0, 0, 0, 0, 0
"BUS3021", 12.47, 3,    8166.82,   90.0,    1.1344, 0, 0, 0, 0, 0, 0, 0, 0, 0, 0, 0, 0, 0, 0, 0, 0, 0, 0, 0, 0
"BUS3022", 12.47, 1,    8166.82,  -30.0,    1.1344, 2,    8166.82, -150.0,    1.1344, 3,    8166.82,   90.0,    1.1344, 0, 0, 0, 0, 0, 0, 0, 0, 0, 0, 0, 0
"BUS3023", 12.47, 1,    8166.82,  -30.0,    1.1344, 0, 0, 0, 0, 0, 0, 0, 0, 0, 0, 0, 0, 0, 0, 0, 0, 0, 0, 0, 0
"BUS3024", 12.47, 1,    8166.82,  -30.0,    1.1344, 0, 0, 0, 0, 0, 0, 0, 0, 0, 0, 0, 0, 0, 0, 0, 0, 0, 0, 0, 0
"BUS3025", 12.47, 1,    8166.82,  -30.0,    1.1344, 0, 0, 0, 0, 0, 0, 0, 0, 0, 0, 0, 0, 0, 0, 0, 0, 0, 0, 0, 0
"BUS3026", 12.47, 1,    8166.82,  -30.0,    1.1344, 0, 0, 0, 0, 0, 0, 0, 0, 0, 0, 0, 0, 0, 0, 0, 0, 0, 0, 0, 0
"BUS3027", 12.47, 1,    8166.82,  -30.0,    1.1344, 0, 0, 0, 0, 0, 0, 0, 0, 0, 0, 0, 0, 0, 0, 0, 0, 0, 0, 0, 0
"BUS3028", 12.47, 1,    8166.82,  -30.0,    1.1344, 0, 0, 0, 0, 0, 0, 0, 0, 0, 0, 0, 0, 0, 0, 0, 0, 0, 0, 0, 0
"BUS3029", 12.47, 1,    8166.82,  -30.0,    1.1344, 0, 0, 0, 0, 0, 0, 0, 0, 0, 0, 0, 0, 0, 0, 0, 0, 0, 0, 0, 0
"BUS3030", 12.47, 1,    8166.82,  -30.0,    1.1344, 2,    8166.83, -150.0,    1.1344, 3,    8166.83,   90.0,    1.1344, 0, 0, 0, 0, 0, 0, 0, 0, 0, 0, 0, 0
"BUS3035", 12.47, 1,    8166.82,  -30.0,    1.1344, 2,    8166.83, -150.0,    1.1344, 3,    8166.83,   90.0,    1.1344, 0, 0, 0, 0, 0, 0, 0, 0, 0, 0, 0, 0
"BUS3036", 12.47, 1,    8166.82,  -30.0,    1.1344, 2,    8166.83, -150.0,    1.1344, 3,    8166.83,   90.0,    1.1344, 0, 0, 0, 0, 0, 0, 0, 0, 0, 0, 0, 0
"BUS3037", 12.47, 1,    8166.82,  -30.0,    1.1344, 2,    8166.83, -150.0,    1.1344, 3,    8166.83,   90.0,    1.1344, 0, 0, 0, 0, 0, 0, 0, 0, 0, 0, 0, 0
"BUS3038", 12.47, 1,    8166.82,  -30.0,    1.1344, 2,    8166.83, -150.0,    1.1344, 3,    8166.83,   90.0,    1.1344, 0, 0, 0, 0, 0, 0, 0, 0, 0, 0, 0, 0
"BUS3039", 12.47, 1,    8166.82,  -30.0,    1.1344, 2,    8166.83, -150.0,    1.1344, 3,    8166.83,   90.0,    1.1344, 0, 0, 0, 0, 0, 0, 0, 0, 0, 0, 0, 0
"BUS3053", 12.47, 1,    8166.82,  -30.0,    1.1344, 2,    8166.83, -150.0,    1.1344, 3,    8166.83,   90.0,    1.1344, 0, 0, 0, 0, 0, 0, 0, 0, 0, 0, 0, 0
"BUS3054", 12.47, 1,    8166.82,  -30.0,    1.1344, 2,    8166.83, -150.0,    1.1344, 3,    8166.83,   90.0,    1.1344, 0, 0, 0, 0, 0, 0, 0, 0, 0, 0, 0, 0
"BUS3055", 12.47, 2,    8166.83, -150.0,    1.1344, 0, 0, 0, 0, 0, 0, 0, 0, 0, 0, 0, 0, 0, 0, 0, 0, 0, 0, 0, 0
"BUS3056", 12.47, 2,    8166.83, -150.0,    1.1344, 0, 0, 0, 0, 0, 0, 0, 0, 0, 0, 0, 0, 0, 0, 0, 0, 0, 0, 0, 0
"BUS3057", 12.47, 2,    8166.83, -150.0,    1.1344, 0, 0, 0, 0, 0, 0, 0, 0, 0, 0, 0, 0, 0, 0, 0, 0, 0, 0, 0, 0
"BUS3058", 12.47, 2,    8166.83, -150.0,    1.1344, 0, 0, 0, 0, 0, 0, 0, 0, 0, 0, 0, 0, 0, 0, 0, 0, 0, 0, 0, 0
"BUS3059", 12.47, 2,    8166.83, -150.0,    1.1344, 0, 0, 0, 0, 0, 0, 0, 0, 0, 0, 0, 0, 0, 0, 0, 0, 0, 0, 0, 0
"BUS3060", 12.47, 2,    8166.83, -150.0,    1.1344, 0, 0, 0, 0, 0, 0, 0, 0, 0, 0, 0, 0, 0, 0, 0, 0, 0, 0, 0, 0
"BUS3061", 12.47, 2,    8166.83, -150.0,    1.1344, 0, 0, 0, 0, 0, 0, 0, 0, 0, 0, 0, 0, 0, 0, 0, 0, 0, 0, 0, 0
"BUS3062", 12.47, 2,    8166.83, -150.0,    1.1344, 0, 0, 0, 0, 0, 0, 0, 0, 0, 0, 0, 0, 0, 0, 0, 0, 0, 0, 0, 0
"BUS3063", 12.47, 2,    8166.83, -150.0,    1.1344, 0, 0, 0, 0, 0, 0, 0, 0, 0, 0, 0, 0, 0, 0, 0, 0, 0, 0, 0, 0
"BUS3064", 12.47, 2,    8166.83, -150.0,    1.1344, 0, 0, 0, 0, 0, 0, 0, 0, 0, 0, 0, 0, 0, 0, 0, 0, 0, 0, 0, 0
"BUS3065", 12.47, 2,    8166.83, -150.0,    1.1344, 0, 0, 0, 0, 0, 0, 0, 0, 0, 0, 0, 0, 0, 0, 0, 0, 0, 0, 0, 0
"BUS3066", 12.47, 2,    8166.83, -150.0,    1.1344, 0, 0, 0, 0, 0, 0, 0, 0, 0, 0, 0, 0, 0, 0, 0, 0, 0, 0, 0, 0
"BUS3067", 12.47, 2,    8166.83, -150.0,    1.1344, 0, 0, 0, 0, 0, 0, 0, 0, 0, 0, 0, 0, 0, 0, 0, 0, 0, 0, 0, 0
"BUS3040", 12.47, 1,    8166.82,  -30.0,    1.1344, 2,    8166.83, -150.0,    1.1344, 3,    8166.83,   90.0,    1.1344, 0, 0, 0, 0, 0, 0, 0, 0, 0, 0, 0, 0
"BUS3044", 12.47, 3,    8166.83,   90.0,    1.1344, 0, 0, 0, 0, 0, 0, 0, 0, 0, 0, 0, 0, 0, 0, 0, 0, 0, 0, 0, 0
"BUS3045", 12.47, 3,    8166.83,   90.0,    1.1344, 0, 0, 0, 0, 0, 0, 0, 0, 0, 0, 0, 0, 0, 0, 0, 0, 0, 0, 0, 0
"BUS3041", 12.47, 3,    8166.83,   90.0,    1.1344, 0, 0, 0, 0, 0, 0, 0, 0, 0, 0, 0, 0, 0, 0, 0, 0, 0, 0, 0, 0
"BUS3042", 12.47, 3,    8166.83,   90.0,    1.1344, 0, 0, 0, 0, 0, 0, 0, 0, 0, 0, 0, 0, 0, 0, 0, 0, 0, 0, 0, 0
"BUS3043", 12.47, 3,    8166.83,   90.0,    1.1344, 0, 0, 0, 0, 0, 0, 0, 0, 0, 0, 0, 0, 0, 0, 0, 0, 0, 0, 0, 0
"BUS3046", 12.47, 1,    8166.82,  -30.0,    1.1344, 2,    8166.83, -150.0,    1.1344, 3,    8166.83,   90.0,    1.1344, 0, 0, 0, 0, 0, 0, 0, 0, 0, 0, 0, 0
"BUS3047", 12.47, 1,    8166.82,  -30.0,    1.1344, 2,    8166.83, -150.0,    1.1344, 3,    8166.83,   90.0,    1.1344, 0, 0, 0, 0, 0, 0, 0, 0, 0, 0, 0, 0
"BUS3048", 12.47, 1,    8166.82,  -30.0,    1.1344, 2,    8166.83, -150.0,    1.1344, 3,    8166.83,   90.0,    1.1344, 0, 0, 0, 0, 0, 0, 0, 0, 0, 0, 0, 0
"BUS3049", 12.47, 1,    8166.82,  -30.0,    1.1344, 2,    8166.83, -150.0,    1.1344, 3,    8166.83,   90.0,    1.1344, 0, 0, 0, 0, 0, 0, 0, 0, 0, 0, 0, 0
"BUS3050", 12.47, 1,    8166.82,  -30.0,    1.1344, 2,    8166.83, -150.0,    1.1344, 3,    8166.83,   90.0,    1.1344, 0, 0, 0, 0, 0, 0, 0, 0, 0, 0, 0, 0
"BUS3051", 12.47, 1,    8166.82,  -30.0,    1.1344, 2,    8166.83, -150.0,    1.1344, 3,    8166.83,   90.0,    1.1344, 0, 0, 0, 0, 0, 0, 0, 0, 0, 0, 0, 0
"BUS3052", 12.47, 1,    8166.82,  -30.0,    1.1344, 2,    8166.83, -150.0,    1.1344, 3,    8166.83,   90.0,    1.1344, 0, 0, 0, 0, 0, 0, 0, 0, 0, 0, 0, 0
"BUS3031", 12.47, 1,    8166.82,  -30.0,    1.1344, 2,    8166.83, -150.0,    1.1344, 3,    8166.83,   90.0,    1.1344, 0, 0, 0, 0, 0, 0, 0, 0, 0, 0, 0, 0
"BUS3032", 12.47, 1,    8166.83,  -30.0,    1.1344, 2,    8166.83, -150.0,    1.1344, 3,    8166.83,   90.0,    1.1344, 0, 0, 0, 0, 0, 0, 0, 0, 0, 0, 0, 0
"BUS3033", 12.47, 1,    8166.83,  -30.0,    1.1344, 2,    8166.83, -150.0,    1.1344, 3,    8166.83,   90.0,    1.1344, 0, 0, 0, 0, 0, 0, 0, 0, 0, 0, 0, 0
"BUS3034", 12.47, 1,    8166.83,  -30.0,    1.1344, 2,    8166.83, -150.0,    1.1344, 3,    8166.83,   90.0,    1.1344, 0, 0, 0, 0, 0, 0, 0, 0, 0, 0, 0, 0
"BUS3068", 12.47, 1,    8166.83,  -30.0,    1.1344, 2,    8166.83, -150.0,    1.1344, 3,    8166.83,   90.0,    1.1344, 0, 0, 0, 0, 0, 0, 0, 0, 0, 0, 0, 0
"BUS3069", 12.47, 1,    8166.83,  -30.0,    1.1344, 2,    8166.83, -150.0,    1.1344, 3,    8166.83,   90.0,    1.1344, 0, 0, 0, 0, 0, 0, 0, 0, 0, 0, 0, 0
"BUS3070", 12.47, 1,    8166.83,  -30.0,    1.1344, 2,    8166.83, -150.0,    1.1344, 3,    8166.83,   90.0,    1.1344, 0, 0, 0, 0, 0, 0, 0, 0, 0, 0, 0, 0
"BUS3071", 12.47, 1,    8166.83,  -30.0,    1.1344, 2,    8166.83, -150.0,    1.1344, 3,    8166.83,   90.0,    1.1344, 0, 0, 0, 0, 0, 0, 0, 0, 0, 0, 0, 0
"BUS3072", 12.47, 1,    8166.83,  -30.0,    1.1344, 2,    8166.83, -150.0,    1.1344, 3,    8166.83,   90.0,    1.1344, 0, 0, 0, 0, 0, 0, 0, 0, 0, 0, 0, 0
"BUS3073", 12.47, 1,    8166.83,  -30.0,    1.1344, 2,    8166.83, -150.0,    1.1344, 3,    8166.83,   90.0,    1.1344, 0, 0, 0, 0, 0, 0, 0, 0, 0, 0, 0, 0
"BUS3074", 12.47, 1,    8166.83,  -30.0,    1.1344, 2,    8166.83, -150.0,    1.1344, 3,    8166.83,   90.0,    1.1344, 0, 0, 0, 0, 0, 0, 0, 0, 0, 0, 0, 0
"BUS3075", 12.47, 1,    8166.83,  -30.0,    1.1344, 2,    8166.83, -150.0,    1.1344, 3,    8166.83,   90.0,    1.1344, 0, 0, 0, 0, 0, 0, 0, 0, 0, 0, 0, 0
"BUS3076", 12.47, 1,    8166.83,  -30.0,    1.1344, 2,    8166.83, -150.0,    1.1344, 3,    8166.83,   90.0,    1.1344, 0, 0, 0, 0, 0, 0, 0, 0, 0, 0, 0, 0
"BUS3077", 12.47, 1,    8166.83,  -30.0,    1.1344, 2,    8166.83, -150.0,    1.1344, 3,    8166.83,   90.0,    1.1344, 0, 0, 0, 0, 0, 0, 0, 0, 0, 0, 0, 0
"BUS3078", 12.47, 1,    8166.83,  -30.0,    1.1344, 2,    8166.83, -150.0,    1.1344, 3,    8166.83,   90.0,    1.1344, 0, 0, 0, 0, 0, 0, 0, 0, 0, 0, 0, 0
"BUS3079", 12.47, 1,    8166.83,  -30.0,    1.1344, 2,    8166.83, -150.0,    1.1344, 3,    8166.83,   90.0,    1.1344, 0, 0, 0, 0, 0, 0, 0, 0, 0, 0, 0, 0
"BUS3080", 12.47, 1,    8166.83,  -30.0,    1.1344, 2,    8166.83, -150.0,    1.1344, 3,    8166.84,   90.0,    1.1344, 0, 0, 0, 0, 0, 0, 0, 0, 0, 0, 0, 0
"BUS3081", 12.47, 1,    8166.83,  -30.0,    1.1344, 2,    8166.83, -150.0,    1.1344, 3,    8166.84,   90.0,    1.1344, 4,    8166.83,  -30.0,    1.1344, 5,    8166.83, -150.0,    1.1344, 6,    8166.84,   90.0,    1.1344
"BUS3082", 12.47, 1,    8166.84,  -30.0,    1.1344, 2,    8166.84, -150.0,    1.1344, 3,    8166.84,   90.0,    1.1344, 0, 0, 0, 0, 0, 0, 0, 0, 0, 0, 0, 0
"BUS3083", 12.47, 1,    8166.84,  -30.0,    1.1344, 0, 0, 0, 0, 0, 0, 0, 0, 0, 0, 0, 0, 0, 0, 0, 0, 0, 0, 0, 0
"BUS3084", 12.47, 1,    8166.84,  -30.0,    1.1344, 0, 0, 0, 0, 0, 0, 0, 0, 0, 0, 0, 0, 0, 0, 0, 0, 0, 0, 0, 0
"BUS3085", 12.47, 1,    8166.84,  -30.0,    1.1344, 0, 0, 0, 0, 0, 0, 0, 0, 0, 0, 0, 0, 0, 0, 0, 0, 0, 0, 0, 0
"BUS3086", 12.47, 1,    8166.84,  -30.0,    1.1344, 0, 0, 0, 0, 0, 0, 0, 0, 0, 0, 0, 0, 0, 0, 0, 0, 0, 0, 0, 0
"BUS3087", 12.47, 1,    8166.84,  -30.0,    1.1344, 0, 0, 0, 0, 0, 0, 0, 0, 0, 0, 0, 0, 0, 0, 0, 0, 0, 0, 0, 0
"BUS3088", 12.47, 1,    8166.84,  -30.0,    1.1344, 0, 0, 0, 0, 0, 0, 0, 0, 0, 0, 0, 0, 0, 0, 0, 0, 0, 0, 0, 0
"BUS3089", 12.47, 1,    8166.84,  -30.0,    1.1344, 0, 0, 0, 0, 0, 0, 0, 0, 0, 0, 0, 0, 0, 0, 0, 0, 0, 0, 0, 0
"BUS3090", 12.47, 1,    8166.84,  -30.0,    1.1344, 0, 0, 0, 0, 0, 0, 0, 0, 0, 0, 0, 0, 0, 0, 0, 0, 0, 0, 0, 0
"BUS3091", 12.47, 1,    8166.84,  -30.0,    1.1344, 0, 0, 0, 0, 0, 0, 0, 0, 0, 0, 0, 0, 0, 0, 0, 0, 0, 0, 0, 0
"BUS3092", 12.47, 1,    8166.84,  -30.0,    1.1344, 2,    8166.84, -150.0,    1.1344, 3,    8166.84,   90.0,    1.1344, 0, 0, 0, 0, 0, 0, 0, 0, 0, 0, 0, 0
"BUS3093", 12.47, 1,    8166.84,  -30.0,    1.1344, 0, 0, 0, 0, 0, 0, 0, 0, 0, 0, 0, 0, 0, 0, 0, 0, 0, 0, 0, 0
"BUS3094", 12.47, 1,    8166.84,  -30.0,    1.1344, 0, 0, 0, 0, 0, 0, 0, 0, 0, 0, 0, 0, 0, 0, 0, 0, 0, 0, 0, 0
"BUS3095", 12.47, 1,    8166.84,  -30.0,    1.1344, 0, 0, 0, 0, 0, 0, 0, 0, 0, 0, 0, 0, 0, 0, 0, 0, 0, 0, 0, 0
"BUS3096", 12.47, 1,    8166.84,  -30.0,    1.1344, 0, 0, 0, 0, 0, 0, 0, 0, 0, 0, 0, 0, 0, 0, 0, 0, 0, 0, 0, 0
"BUS3097", 12.47, 1,    8166.84,  -30.0,    1.1344, 0, 0, 0, 0, 0, 0, 0, 0, 0, 0, 0, 0, 0, 0, 0, 0, 0, 0, 0, 0
"BUS3098", 12.47, 2,    8166.84, -150.0,    1.1344, 0, 0, 0, 0, 0, 0, 0, 0, 0, 0, 0, 0, 0, 0, 0, 0, 0, 0, 0, 0
"BUS3099", 12.47, 2,    8166.84, -150.0,    1.1344, 0, 0, 0, 0, 0, 0, 0, 0, 0, 0, 0, 0, 0, 0, 0, 0, 0, 0, 0, 0
"BUS3100", 12.47, 1,    8166.84,  -30.0,    1.1344, 2,    8166.84, -150.0,    1.1344, 3,    8166.84,   90.0,    1.1344, 0, 0, 0, 0, 0, 0, 0, 0, 0, 0, 0, 0
"BUS3101", 12.47, 3,    8166.84,   90.0,    1.1344, 0, 0, 0, 0, 0, 0, 0, 0, 0, 0, 0, 0, 0, 0, 0, 0, 0, 0, 0, 0
"BUS3102", 12.47, 3,    8166.84,   90.0,    1.1344, 0, 0, 0, 0, 0, 0, 0, 0, 0, 0, 0, 0, 0, 0, 0, 0, 0, 0, 0, 0
"BUS3103", 12.47, 3,    8166.84,   90.0,    1.1344, 0, 0, 0, 0, 0, 0, 0, 0, 0, 0, 0, 0, 0, 0, 0, 0, 0, 0, 0, 0
"BUS3104", 12.47, 3,    8166.84,   90.0,    1.1344, 0, 0, 0, 0, 0, 0, 0, 0, 0, 0, 0, 0, 0, 0, 0, 0, 0, 0, 0, 0
"BUS3105", 12.47, 3,    8166.84,   90.0,    1.1344, 0, 0, 0, 0, 0, 0, 0, 0, 0, 0, 0, 0, 0, 0, 0, 0, 0, 0, 0, 0
"BUS3106", 12.47, 3,    8166.84,   90.0,    1.1344, 0, 0, 0, 0, 0, 0, 0, 0, 0, 0, 0, 0, 0, 0, 0, 0, 0, 0, 0, 0
"BUS3107", 12.47, 1,    8166.84,  -30.0,    1.1344, 2,    8166.84, -150.0,    1.1344, 3,    8166.84,   90.0,    1.1344, 0, 0, 0, 0, 0, 0, 0, 0, 0, 0, 0, 0
"BUS3108", 12.47, 1,    8166.84,  -30.0,    1.1344, 0, 0, 0, 0, 0, 0, 0, 0, 0, 0, 0, 0, 0, 0, 0, 0, 0, 0, 0, 0
"BUS3109", 12.47, 1,    8166.84,  -30.0,    1.1344, 0, 0, 0, 0, 0, 0, 0, 0, 0, 0, 0, 0, 0, 0, 0, 0, 0, 0, 0, 0
"BUS3110", 12.47, 1,    8166.84,  -30.0,    1.1344, 0, 0, 0, 0, 0, 0, 0, 0, 0, 0, 0, 0, 0, 0, 0, 0, 0, 0, 0, 0
"BUS3111", 12.47, 1,    8166.84,  -30.0,    1.1344, 0, 0, 0, 0, 0, 0, 0, 0, 0, 0, 0, 0, 0, 0, 0, 0, 0, 0, 0, 0
"BUS3112", 12.47, 1,    8166.84,  -30.0,    1.1344, 0, 0, 0, 0, 0, 0, 0, 0, 0, 0, 0, 0, 0, 0, 0, 0, 0, 0, 0, 0
"BUS3113", 12.47, 2,    8166.84, -150.0,    1.1344, 0, 0, 0, 0, 0, 0, 0, 0, 0, 0, 0, 0, 0, 0, 0, 0, 0, 0, 0, 0
"BUS3114", 12.47, 2,    8166.84, -150.0,    1.1344, 0, 0, 0, 0, 0, 0, 0, 0, 0, 0, 0, 0, 0, 0, 0, 0, 0, 0, 0, 0
"BUS3115", 12.47, 2,    8166.84, -150.0,    1.1344, 0, 0, 0, 0, 0, 0, 0, 0, 0, 0, 0, 0, 0, 0, 0, 0, 0, 0, 0, 0
"BUS3116", 12.47, 2,    8166.84, -150.0,    1.1344, 0, 0, 0, 0, 0, 0, 0, 0, 0, 0, 0, 0, 0, 0, 0, 0, 0, 0, 0, 0
"BUS3117", 12.47, 2,    8166.84, -150.0,    1.1344, 0, 0, 0, 0, 0, 0, 0, 0, 0, 0, 0, 0, 0, 0, 0, 0, 0, 0, 0, 0
"BUS3118", 12.47, 1,    8166.84,  -30.0,    1.1344, 2,    8166.84, -150.0,    1.1344, 3,    8166.84,   90.0,    1.1344, 0, 0, 0, 0, 0, 0, 0, 0, 0, 0, 0, 0
"BUS3119", 12.47, 2,    8166.84, -150.0,    1.1344, 0, 0, 0, 0, 0, 0, 0, 0, 0, 0, 0, 0, 0, 0, 0, 0, 0, 0, 0, 0
"BUS3120", 12.47, 2,    8166.84, -150.0,    1.1344, 0, 0, 0, 0, 0, 0, 0, 0, 0, 0, 0, 0, 0, 0, 0, 0, 0, 0, 0, 0
"BUS3121", 12.47, 2,    8166.84, -150.0,    1.1344, 0, 0, 0, 0, 0, 0, 0, 0, 0, 0, 0, 0, 0, 0, 0, 0, 0, 0, 0, 0
"BUS3122", 12.47, 2,    8166.84, -150.0,    1.1344, 0, 0, 0, 0, 0, 0, 0, 0, 0, 0, 0, 0, 0, 0, 0, 0, 0, 0, 0, 0
"BUS3123", 12.47, 2,    8166.84, -150.0,    1.1344, 0, 0, 0, 0, 0, 0, 0, 0, 0, 0, 0, 0, 0, 0, 0, 0, 0, 0, 0, 0
...
"BUS_FAULT", 12.47, 1,     8166.8,  -30.0,    1.1343, 2,     8166.8, -150.0,    1.1343, 3,     8166.8,   90.0,    1.1343, 0, 0, 0, 0, 0, 0, 0, 0, 0, 0, 0, 0
"T_BUS1006_L", 0.208, 1,    123.094,  -30.0,     1.025, 2,    123.094, -150.0,     1.025, 0, 0, 0, 0, 0, 0, 0, 0, 0, 0, 0, 0, 0, 0, 0, 0
"T_BUS1007_L", 0.208, 1,    123.094,  -30.0,     1.025, 2,    123.094, -150.0,     1.025, 0, 0, 0, 0, 0, 0, 0, 0, 0, 0, 0, 0, 0, 0, 0, 0
"T_BUS1011_L", 0.208, 1,    122.999,  -30.0,    1.0242, 2,    122.999,  150.0,    1.0242, 0, 0, 0, 0, 0, 0, 0, 0, 0, 0, 0, 0, 0, 0, 0, 0
"T_BUS1012_L", 0.208, 1,    122.999, -150.0,    1.0242, 2,    122.999,   30.0,    1.0242, 0, 0, 0, 0, 0, 0, 0, 0, 0, 0, 0, 0, 0, 0, 0, 0
"T_BUS1014_L", 0.208, 1,    122.999, -150.0,    1.0242, 2,    122.999,   30.0,    1.0242, 0, 0, 0, 0, 0, 0, 0, 0, 0, 0, 0, 0, 0, 0, 0, 0
"T_BUS1015_L", 0.208, 1,    122.999, -150.0,    1.0242, 2,    122.999,   30.0,    1.0242, 0, 0, 0, 0, 0, 0, 0, 0, 0, 0, 0, 0, 0, 0, 0, 0
"T_BUS1016_L", 0.208, 1,    122.999,   90.0,    1.0242, 2,    122.999,  -90.0,    1.0242, 0, 0, 0, 0, 0, 0, 0, 0, 0, 0, 0, 0, 0, 0, 0, 0
"T_BUS1017_L", 0.208, 1,    122.999,   90.0,    1.0242, 2,    122.999,  -90.0,    1.0242, 0, 0, 0, 0, 0, 0, 0, 0, 0, 0, 0, 0, 0, 0, 0, 0
"T_BUS2008_L", 0.208, 1,    122.999,  -30.0,    1.0242, 2,    122.999,  150.0,    1.0242, 0, 0, 0, 0, 0, 0, 0, 0, 0, 0, 0, 0, 0, 0, 0, 0
"T_BUS2009_L", 0.208, 1,    122.999,  -30.0,    1.0242, 2,    122.999,  150.0,    1.0242, 0, 0, 0, 0, 0, 0, 0, 0, 0, 0, 0, 0, 0, 0, 0, 0
"T_BUS2014_L", 0.208, 1,    122.999, -150.0,    1.0242, 2,    122.999,   30.0,    1.0242, 0, 0, 0, 0, 0, 0, 0, 0, 0, 0, 0, 0, 0, 0, 0, 0
"T_BUS2015_L", 0.208, 1,    122.999, -150.0,    1.0242, 2,    122.999,   30.0,    1.0242, 0, 0, 0, 0, 0, 0, 0, 0, 0, 0, 0, 0, 0, 0, 0, 0
"T_BUS2016_L", 0.208, 1,    122.999, -150.0,    1.0242, 2,    122.999,   30.0,    1.0242, 0, 0, 0, 0, 0, 0, 0, 0, 0, 0, 0, 0, 0, 0, 0, 0
"T_BUS2017_L", 0.208, 1,    122.999, -150.0,    1.0242, 2,    122.999,   30.0,    1.0242, 0, 0, 0, 0, 0, 0, 0, 0, 0, 0, 0, 0, 0, 0, 0, 0
"T_BUS2018_L", 0.208, 1,    122.999, -150.0,    1.0242, 2,    122.999,   30.0,    1.0242, 0, 0, 0, 0, 0, 0, 0, 0, 0, 0, 0, 0, 0, 0, 0, 0
"T_BUS2020_L", 0.208, 1,    122.999, -150.0,    1.0242, 2,    122.999,   30.0,    1.0242, 0, 0, 0, 0, 0, 0, 0, 0, 0, 0, 0, 0, 0, 0, 0, 0
...